
 信件•开放获取

民用航空排放的全球、地区和本地健康影响

引用此文章：Steve H L Yim等人，2015年《环境研究快报》10 034001

在线查看文章以获取更新和改进。您也可能喜欢

来自国际航空运输的人口和货运二氧化碳排放：新西兰案例研究

Anna P Tarr，Inga J Smith和Craig J Rodger-

量化航空对全球变暖的贡献

M Klöwer，M R Allen，D S Lee等 -

航空部门二氧化碳排放对未来气候变化的贡献

E Terrenoiure，D A Hauglustaine，T Gasser等 -
 本文主要研究了民用航空排放对全球、地区和本地健康的影响。作者使用了一种多尺度建模方法，对民用航空排放的空气质量影响进行了量化，并将其近似为飞机云团动力学相关的局地扩散（约1公里）、机场附近扩散（约10公里）、区域（约1000公里）和全球（约10,000公里）尺度的化学和传输效应。利用浓度-响应函数估算因暴露于航空相关PM2.5和臭氧的人口早逝数量，发现航空排放导致每年约16,000例（90%置信区间：8,300-24,000）的早逝。其中，LTO排放贡献了一分之一。本研究还发现，由于长期暴露于航空相关PM2.5和臭氧，早逝的成本约为每年210亿美元。将这些成本与航空的社会成本进行比较，发现它们在同一数量级上，并且比航空相关的事故和噪音成本高一个数量级。
 研究发现，空气污染物与各种生理反应有关，这些反应增加了致命心血管疾病或呼吸系统事故的可能性。后续的一项对美国癌症协会队列研究發現，O3（在动物实验室研究中，被证明在吸入时会导致氧化损伤）也與呼吸系統疾病有關。Barrett等人（2010年）将GEOS-Chem（在全球范围内）应用于估计由於全球航空排放导致的PM2.5浓度的值。他們報告，全球飞机排放導致約10,000例提前死亡每年，其中80％是由巡航排放引起的。Lee等人（2013年）使用CAM-chem研究了航空排放对大气O3、NOx和PM2.5浓度的影响，证实了巡航排放在航空影响表面空气质量中的主导作用。Woody等人（2011年）在美国的99个机场（海拔3000英尺以上）对着陆和起飞（LTO）操作的航空 attri-butable 细颗粒物排放进行了量化，发现这些LTO排放对人类健康的影响。使用Woody等人的（2011年）和Levy等人的（2012a年）结果，计算出这些LTO排放导致的人类健康影响为2005年的75例提前死亡和2025年的460例提前死亡。

许多研究评估了航空部门对近距离（<10公里）空气质量下降的贡献。场地和数据分析已经证明了污染物质浓度与机场活动之间的相关性（Segal和Yamartino 1981年，Westerdahl等 2008年，Dodson等2009年，Hu等2009年，Hsu等2012年，Hsu等2013年，Zhu等2011年），在欧洲（Carslaw等2006年，Schürmann等2007年，Carslaw和Beevers 2013年）和亚洲（Yu等2004年）。当地空气质量建模方法也被应用来量化机场排放对近场影响（Farias和ApSi-mon 2006年，Peace等2006年，Carslaw和Taylor 2009年，Carslaw等2012年）。这些研究只调查了一小部分机场，通常专注于直接来自源头的原生污染物（ directly emitted from sources），而不是通过化学反应形成的次生污染物。一个例外是在考虑污染物时，Arunachalam等人（2011年）使用社区多尺度空气质量模型（CMAQ）估算了三个美国机场的人口暴露于初级和次级PM2.5浓度。Rissman等人（2013年）使用了一个修改版的CMAQ，配合烟柱网格模型，估算了Hartsfield-Jackson亚特兰大国际机场排放的PM2.5浓度。然而，Yim等人（2013年）表明，机场周围空气质量影响的变异性比前两个 aforementioned研究所用分辨率要小。为了捕捉与航空排放相关的本地影响的变化，Yim等人（2013年）将CMAQ和局部扩散模型结合使用，估算了20个主要机场（英国）的LTO排放对空气质量及健康影响。通过合并区域和局部空气质量模型，Yim等人（2013年）估计，目前的英国航空排放导致了大约110例提前死亡。Yim等人（2013年）发现，考虑到本地尺度的扩散，会计入烟柱动力学将使预估的PM暴露增加25-31%，但当考虑到烟柱动力学时，这种
 2.1. 航空排放对全球健康的影响，包括在接近机场和全球范围内的效果，以及首次表明航空人类健康成本与其气候成本可比较。

2.2. 方法
我们应用多尺度方法解决不同空间尺度上航空相关PM2.5和臭氧的变异。使用化学传输模型GEOS-Chem和CMAQ估算全球和区域空气质量影响，其中航空相关PM2.5和臭氧计算为所有排放模拟与仅包含非航空排放的模拟之间的差异。机场周边PM2.5（但不是臭氧，其在地区层面）影响是通过将本地扩散和区域化学传输模型的结果合并来计算的。由于长期暴露于PM2.5和臭氧中的航空排放导致提前死亡，使用人口密度数据计算暴露，然后使用浓度-响应函数（CRF）映射暴露于风险的早期死亡。计算国家特定的统计生命（VSL）以折现导致提前死亡的结果。我们使用蒙特卡洛方法来量化我们的计算中的不确定性。

2.1. 航空排放
2006年的航空排放来自AEDT（Wilson等人，2010年），包括民用航空排放的一氧化氮、烃类和燃料燃烧。二氧化硫、黑碳（BC）和有机碳（OC）的排放量从燃料消耗中缩放得到（Barrett等人，2012年）。具体来说，我们将BC和OC的缩放因子假设为30mg/kg燃料，这与Aircraft Particle Emissions Experiment测量活动中发现的范围37-83mg/kg燃料 for OC和21-98mg/kg燃料 for BC（Kinsey，2009年）相当。总全球燃料消耗估计为188Tg，其中36%发生在北美，25%发生在欧洲，20%发生在亚洲。剩余的19%发生其他地区（包括非洲和 oceania）。排放按空间和时间网格进行空间和时间建模。

附近共有968个机场的局部空气质量 explicitly建模，考虑了飞机起降和滑行所需的全部燃料消耗。在所建模的机场中，26.5%，22.9%，19.1%位于北美、欧洲、亚洲，其余机场位于其他地区。我们注意到，我们不包括许多小型机场的影响，这些机场也可能具有地方性影响。69%的机场位于CMAQ的三个区域之一内，这些区域覆盖全球65%的人口，70%的满程航班燃油消耗和76%的LTO燃油消耗。机场列表提供在stacks.iop.org/ERL/10/034001/mmedia可在的电子支持信息（ESI）中。根据飞行模式（包括 Taxi-in 和 Taxi-out、起飞和降落），计算并分配地面颗粒物排放（BC，OC和硫酸盐）。对于美国机场，根据AEDT机场数据库（AEDT 2011年）将排放分配给终端和跑道。对于非美国机场，将所有运营排放分配给跑道，因为 taxiway和终端数据并未广泛可用。将相同的方法应用于美国的结果，相对于拥有终端区域信息，当地暴露差异小于5%。

2.2. 空气质量建模
我们在全球、区域和局部三个尺度上应用多尺度方法来解决空气质量影响：
 2012年，为了评估机场排放对空气质量的影响，使用了区域动态模型（RDC）来计算。RDC网格接收器的空间分辨率为400米，域大小为40.4公里×40.4公里。AERMOD（Cimorelli等人，2004年）用于提供点源扩散参数，以满足RDC对区域源计算的要求，包括跑道和终端区。由国家气候数据中心（NCDC，2008年）运营的全球雷达探空档案（IGRA）提供了所需的气象数据。RDC的结果与AERMOD（Cimorelli等人，2004年）在Lee（2012年）中的结果进行了比较。

除了计算机场周边的主要PM浓度外，我们还采用了Lewis和Stevens（1985年）描述的方法，估算了二次硫酸盐PM2.5的本地浓度，这是由于飞机地面排放引起的。二次硫酸盐浓度的估计如下：

χχ ε = + - kxu1,SO SO x 42⎛⎝⎞⎠⎟

其中，χSOxis由RDC模拟的常见质量基础上的硫氧化物总浓度；ε是假设为2%的燃料硫燃烧产生的硫酸盐（Stettler等人，2011）；kis二氧化硫到硫酸盐的平均转化速率（Lewis和Stevens，1985）；xi是发射源距离；u1是风速的一年平均时间序列。

我们将RDC的结果与在北美、欧洲和亚洲三个区域考虑的机场（CMAQ）结果以及其他机场的GEOS-Chem结果进行了合并。为了避免重复计算飞机排放的影响，我们应用了Isakov等人（2007年）开发的质量守恒方法。用于暴露评估的PM浓度为：

χχ χ χ= + − ,RDC CMAQ RDC

其中，χis来自RDC和CMAQ模型的航空 attributable PM2.5浓度的合并结果（μgm–3），称为局部/区域混合结果；χRDCis由RDC计算的PM2.5浓度（μgm–3）；χCMA Qis由CMAQ模拟的航空 attributable PM2.5浓度（μgm–3）；χRDCisCMAQ网格单元中所有RDC网格单元的平均RDC PM2.5浓度。该方法已在其他机场研究中应用（Lee，2012年，Yim等人，2013年），并具有保留地面水平PM质量的效果，但将重新分布以使 Source Modeling

2.3. 烟柱校正因子和源建模

飞机启动、滑行和着陆排气源被视为地面面积源，根据Barrett等人（2013年）的研究，如果不考虑飞机云团动力学，从地面源模拟得到的近场浓度会高估1.36至2.30倍。这个过度预测是由于忽略了飞机排放喷嘴混合和浮力引起的附加混合。Barrett等人（2013年）表明，如果将区域校正因子乘以面积源，则可以参数化飞机源的当地分散。因此，我们在计算中考虑了烟柱校正因子。

在较高的速度风中远离地面的提升源被CMAQ（及GEOS-Chem）建模捕捉，而不是进行局部扩散建模。

2.4. 健康影响

2.4.1. PM2.5的CRF

PM2.5暴露通过将航空 attributable PM 2.5浓度，基于全球模拟结果拼接而成，并与人口数据（来自GRUMP v1项目，空间分辨率30弧度秒（GRUMP 2011)))叠加，利用CRF（世界卫生组织，2004年）报告的进行估算。使用CRF得出早逝人数。虽然这个CRF比文献中报告的其他CRF年龄更早，但我们选择它是因为它可以与类似研究进行直接比较，并在较高暴露下减少风险，从而可能为发展中国家的疾病负担提供更代表性的估计（Barrett等人，2012年）。我们给出了另一个CRF的结果，还讨论了其他CRF选择的ESI影响。

WHO
 要翻译的内容：

1. 在预估死亡估计中，PM2.5物种与EPA实践和先前研究一致。
2.4.2. O3（O3）的CRF
我们应用对数线性CRF来估计由于长期接触航空 attributable O3而导致的预估死亡人数（Jerrett等人，2009年）。CRF以前已被用于评估由于臭氧暴露带来的健康影响（US EPA，2011年，Fann等人，2012年）。由航空导致的健康影响所引起的预估死亡人数估计为：βΔ = ⋅ - ()y Opremature deaths 11
exp,0
3⎛
⎝⎜
⎜⎞
⎠⎟
⎟
其中y0代表基线发病率（因所有呼吸系统疾病导致的死亡人数）。ΔO3是航空排放导致的平均每日最大臭氧浓度（ppb）。我们注意到，尽管这是在臭氧季节严格适用的，但我们由于航空排放的影响相对较小、不同地区臭氧季节的变异性以及将这种方法应用于美国的误差小于10%，因此采取年度平均每日最大臭氧扰动。我们假设在计算臭氧健康影响时，该方法产生的不确定性按2%、3%和7%的折现率进行调整。

2.5. 估值
我们将航空排放导致提前死亡的价值货币化。估值基于美国环保局（EPA）报告的VSL分布（2011年），平均值为74,000美元（2006年美元）。根据美国环保局（2012年）的数据，使用Weibull分布拟合数据，规模参数为7.75，形状参数为1.51。我们还根据Barrett等人（2012年）的方法，以 gross national income 和一个1-2的收入弹性范围为基础，估算其他国家的VSL。我们的估值估算还考虑了PM2.5影响（美国环保局，2011年）的20年停止滞后时间，以便第一年有30%的提前死亡发生，第二至第五年的死亡各占50%，第六至第十年的死亡各占20%。停止滞后时间不适用于O3健康影响，因为没有足够的证据支持任何停止滞后结构。我们对由AERMOD计算的浓度的不确定性用T(0.5, 1, 1.5)表示，即正态分布（Chang和Hanna，2004年），而RDC的额外不确定性用T(0.9, 1, 1.1)表示，基于Lee（2012年）提供的验证结果。由于飞机尾流混合和浮力的降低，可能导致飞机排放浓度的潜在减少。

2.6. 不确定性
我们在结果部分讨论了浓度结果，它们是模型模拟的名义值，而预估死亡人数显示为中心估计值，置信区间为90%。与Yim等人（2013年）和Yim和Barrett（2012年）类似，我们对预估死亡和估值估计的不确定性采用蒙特卡洛方法进行评估。考虑到大气建模和CRF的不确定性，这些不确定性已纳入计算。假设一种三角分布（低、名义和高Multipliers）except where else specified。对于GEOS-Chem模型和CMAQ模型的不同区域，模拟的PM2.5和O3的不确定性分布有所不同。基于模型验证练习得到的标准化均值偏差，AERMOD计算的浓度的不确定性用T(0.5, 1, 1.5)表示，而RDC的额外不确定性用T(0.9, 1, 1.1)表示。

2.7. 敏感性分析
我们对健康影响结果的敏感性进行分析，考虑到不同的BC排放计算方法（包括目前广泛使用的FOA3方法和由Stettler等人（2013年）开发的FOX方法）。
 3. 结果与讨论
我们首先描述全球和区域的大气质量影响，然后计算机场周围的空气质。将所有规模的大气质量影响映射到健康影响，并将其货币化，以便与其他社会成本进行比较。
3.1 全球和区域的大气质量影响
表1显示了基于GEOS-Chem和CMAQ的全球（基于GEOS-Chem和CMAQ）表面PM和臭氧的影响以及PM影响的具体指定。LTO排放（即3000英尺以上）的影响也被给出，因为这些是当前受监管的排放。
全球航空排放在地表O3上的平均影响为0.6 ppb。这一结果与Lee等人（2013年）报告的结果一致，他们发现航空排放导致7月份O3浓度增加0.5 ppb，而1月份则增加了几倍。我们的估计表明，全球表面O3总影响的2%（10.7 ppt）可以归因于LTO排放。与只使用GEOS-Chem计算的结果相比，包括nested CMAQ计算的全球面积加权地面水平O3受到飞行航空排放的影响增加了12%，而O3由LTO排放引起的影响减少了6%，这与VOC有限区域的NOx排放减少O3形成相一致（这些区域被高分辨率CMAQ模拟所捕获）。
在各地区，北美受到的大气质量影响最大（1.1 ppb），其中LTO排放贡献了25.4 ppt。航空排放使亚洲的年平均O3浓度增加了0.9 ppb，这比欧洲和北美的影响小。在欧洲，由于LTO排放导致的地表O3影响为每年18.2 ppb，是该地区最高的，并且是北美的两倍。在亚洲和其他地区，由于航空排放的平均PM2.5浓度为15.1 pgm-3和3.8 pgm-3。
 由于航空排放， PM2.5 的总浓度在机场2公里范围内占44-61%。然而，随着距离机场的增加，百分比逐渐减少。在20公里处，该比例下降到不到6%。我们的结果显示，全球所有机场周围20公里内的平均 PM2.5 浓度为44.2ng/m³。对于亚洲机场，由航空排放导致的平均近场影响 PM2.5 为74.1ng/m³，高于其他地区，并且比北美 PM2.5 浓度高出两倍以上（29.5ng/m³）。这符合可用氨气放大航空对 PM2.5 贡献的峰值，尤其是巡航排放的影响。平均而言，机场周围欧洲和其他地区的平均航空相关 PM2.5 影响为58.5ng/m³ 和26.2ng/m³。

由于机场周边不同地区的区域人口密度不同，以及可用的氨气和航空排放的差异，不同地区暴露于具有航空相关 PM2.5 的风险有所不同。我们的结果表明，有23% 的机场的机场人群暴露于飞机相关的 PM2.5 高于全球平均水平，其中17% 位于北美，33% 和34% 分别位于欧洲和亚洲，其余16% 位于其他地区。航空排放导致全球所有机场周围20公里内平均 PM2.5 暴露量为44.9 人·mg/m³。在地区中，机场周围亚洲的平均暴露量最高（每年142.6人·mg/m³），比全球平均水平高出约3.2倍。亚洲相对较高的近场 PM2.5 暴露是由于该地区具有相对较高的航空相关 PM2.5 浓度（由于可用氨气的数量），以及机场周围的平均人口密度。在机场周围20公里内，亚洲所有机场的平均人口约为160万人，比全球平均水平高出87%。欧洲、北美和其他地区的平均航空相关 PM2.5 暴露在20公里范围内分别为42.3、19.5 和15.3 人·mg/m³。

3.3健康影响
表2显示了由于航空排放引起的预期死亡人数。全球航空排放导致每年因人口暴露于航空相关 PM2.5 和臭氧而导致的16000例提前死亡（90%置信区间：8300-24000）。其中，87%和13%是由于 PM2.5和臭氧，分别 caused by PM2.5 and ozone，而25%归因于排放的LTO部分。与仅使用图1中2006年由于航空排放导致的年度平均 PM2.5 浓度的方法相比，CMAQ 结果在北美、欧洲和亚洲与 GEOS-Chem 结果重叠。

表2。不同地区由于暴露于具有航空相关 PM2.5 和臭氧的人口每年的预期死亡人数（90%置信区间）
 GEOS-Chem（全球模型）我们的多尺度方法估计，由于全面航班和LTO排放，全球早逝率分别增加了7%和29%。较低的全面航班排放增加与主导巡航排放在低分辨率全球模型中捕获的相对扩散影响一致。我们的估计显示，航空排放导致每年全球2100例与ozone相关的早逝人数（90%CI：1000-3300）。LTO排放单独占据了由航空排放引起的 ozone相关早逝人数的2.6%。这一结果突显了，由于LTO航班排放导致的长期健康影响相对较小，相比之下，PM2.5的健康影响。然而，由于全面航班排放导致的 ozone暴露占全球总早逝人数的12%，这包括由航空排放引起的PM2.5和ozone。亚洲贡献了全球民航燃料消耗的20%，但早逝人数却占总早逝人数的50%以上。这表明，亚洲的影响主要源于人口密度以及可用的氨氮比在区域内的放大效应，而不是本地的LTO排放。

在Barrett等人（2010）的研究中，发现80%的全球健康影响是由于非LTO排放产生的。在本研究中，其提高了区域分辨率的组合模型及其在968个机场的扩散计算，我们捕捉到了更多的LTO影响（通过在此研究中纳入臭氧来抵消主导巡航排放的影响，使其总估计降低到75%），然而，如表2所示，机场燃料燃烧浓度的地区对LTO排放的贡献较大。具体而言，北美和欧洲的早期死亡中有43%和49%是由LTO排放引起的。另一方面，亚洲的91%的早期死亡归因于非LTO排放。

亚洲在全球民用航空燃料消耗中的比例为20%，但早逝人数却占总早逝人数的50%以上。这与亚洲在民用航空上承受的大规模空气污染成分（Koo等人，2013年）有关联。换句话说，亚洲的重要性是由人口密度和可用氨氮比对硝酸盐的放大效果所驱动的，而非本地LTO排放。

虽然图1表明，大多数航空空气质量影响都发生在三个高分辨率地区，但表1显示，每年其他地区有约2700例与航空排放有关的早逝病例，超过了北美约1500例。美国、欧洲和其他地区的总人口暴露于航空排放的PM2.5中，比率为0.53，而美国、欧洲和其他地区因航空排放导致的人口加权平均PM2.5浓度比率为4.05。这与航空在大分辨率区域 capturing的主要空气质量影响相符，而其他地区的人口则意味着，来自航空的扩散影响仍占全球早逝人数的17%。

我们在全球每个机场20公里范围内计算与航空有关的PM2.5暴露导致的原先死因。我们的结果显示，与航空有关的PM2.5导致了大约5000例（90%CI：2000-9900）在约1000个机场20公里范围内的 premature deaths，这占到了由航空有关的PM2.5和O3引起总 premature deaths的约32％。在总机场周边 premature deaths（即距离机场20公里内的死亡人数）中，北美有25％，欧洲有38％，亚洲有22％，其他地区有15％。我们没有详细说明每个机场周围的原先死因，因为影响是计算的一般航空，而不是特定的机场，因此无法将影响归因于特定机场。

3.4. 其他社会成本的评估和比较

我们将航空排放导致的早逝人数进行货币化（以2006年的美国人为单位）。中央货币化的健康影响是：（21.16，20.58，18.72）亿美元/年，选择（2，3，7）百分比的折现率（ESI表S16）。总成本中，美国的损害为（7.08，6.89，6.27）亿美元/年，欧洲为（10.02，9.74，8.82）亿美元/年 - 这是不同地区中最高的 - 亚洲为（2.25，2.19，2.00）亿美元/年。其他地区的损害占剩余的$(1.48，1.44，1.32）亿美元/年。

表3显示，由于航空排放导致的区域健康成本并不是与表3 proportional。
 航空燃料燃烧在每个地区的分布。全球平均比例为每吨112美元的全飞行排放，LTO排放的比例高出3.31倍。相应于每单位燃料燃烧导致早期死亡人数的对应系数为2.13。LTO操作导致每单位排放的早期死亡人数比巡航时多，因为排放物靠近人口。然而，当将这一差异货币化时，由于富含资源（如北美）的LTO排放相对重要性较大，这种差异被放大。区域VSL variations的体现在注意到，尽管51%的全飞行航空排放导致的早期死亡发生在亚洲，但只有11%的货币化影响发生在那里。Dorrian等人（2011年）估计，美国LTO中每吨燃料燃烧的边际损害为230美元，这比我们得出的结果低约50%（439美元）。这可能是因为Dorrian等人（2011年）使用了一个区域空气质量模型，没有解决本地影响问题，而是采用了FOA3为基础的BC排放而不是更高的FOX基础的BC排放。

为了理解空气质量对航空排放健康成本的影响的相对重要性，我们将它们与其他航空诱导的社会成本（即噪音成本、事故成本和气候变化成本）进行比较，如图2所示。图（参见ESI部分11节）比较了2006年因航空排放导致的健康成本的中位数值与同年气候成本、航空事故成本和噪音成本的估计，并根据适用的小数点折扣率进行折现。请注意，此处显示的柱状图是基于中位数或均值估计，关于实际成本存在显著的不确定性（如本图中的误差棒所示）。

我们的结果显示，与气候成本相比，航空排放导致的健康成本在2%和3%的折现率下处于相同数量级。对于一致的折现率为7%，气候成本比健康成本小一个数量级。将排放相关的健康成本与航空的全球事故成本进行比较，健康成本的中位数估计高于事故成本的中位数估计。
 排放，大约一半的早期死亡是由北美和欧洲的LTO排放引起的——这些地区具有相对较高的航空和机场燃料消耗。相反，91%的早期死亡是由亚洲的非LTO排放引起的。这表明，北美和欧洲的LTO排放减少将带来区域利益，而亚洲的非LTO排放减少的好处将会扩散，并在亚洲感受到。

估计每年有约5000人因航空排放过早死亡，生活在机场周围20公里之内，其中38%是在欧洲的机场附近早期死亡。我们的结果表明，与以前的分析相比，航空器排放的初级PM2.5排放对健康风险的贡献在捕捉到机场附近暴露时显著增加。我们估算的次网格对PM2.5暴露的贡献 significant不确定性是我们对航空BC排放库存的估计。

最后，我们发现航空排放的货币化健康成本超过航空事故成本和噪音成本的倍数，这与Johnson和Hope (2012)适用的气候变化成本计算相符。这表明环境效益的减少在空气质量方面与气候变化效益相同。此外，这意味着在评估航空生物燃料导致排放减少的环境影响时，空气质量影响可能与气候影响相当。例如，Parafine生物燃料预计会消除SOx排放，并将BC排放减少约80%（Speth等人，2015年）。

致谢
本研究是基于2006-2014年受到英国工程和物理科学研究理事会（EPSRC）、美国联邦航空局（FAA）环境和能源办公室以及麻省理工学院（MIT）的支持，包括本多尺度研究的最终组装。任何观点或意见都只是作者的观点，而不是FAA或EPSRC的。我们还感谢匿名审稿人的评论。

参考文献
Arunachalam S, Wang B, Davis N, Baek B H和Levy J I 2011 化学传输模型规模和分辨率对着陆和起飞期间飞机排放的Population暴露的影响 Atmos. Environ. 453294-300
Ashok A, Lee I H, Arunachalam S, Waitz I A, Yim S H L和Barrett S R H 2013 美国空中质量影响的研究美国 Atmos. Environ. 77445-52
AEDT 2011 AEDT数据库描述文档——机场数据集(John A Volpe国家交通系统中心) Barrett S R H和Britter R E 2008 快速操作空气質量建模算法的开发和近似 Atmos. Environ. 428105-11
Barrett S R H和Britter R E 2009 快速近似长期从线性和面积源传播的算法和解析解决方案 Atmos. Environ. 433249-58
Barrett S R H, Britter R E和Waitz I A 2010 全球航空巡航排放导致的健康问题 Environ. Sci. Technol. 447736-42
Barrett S R H et al 2012 公共健康、气候和经济影响 of 脱硫喷气燃料 Environ. Sci. Technol. 464275-82
Barrett S R H，Britter R E和Waitz I A 2013 机场局部空气质量受飞机排放的影响 Atmos. Environ. 74247-58
Bey I, Jacob D J, Yantosca R M, Logan J A, Field B, Fiore A M, Li Q, Liu H, Mickley L J和Schultz M 2001 全球大气化学模型：模型描述和评估 J. Geophys. Res. 10623073-23096
Brook等 2010 颗粒物空气污染与心血管疾病：美国心脏协会的科学声明更新 Circulation 1212331-78
Byun D W和Schere K L 2006 审查模型的 governing equations、计算程序和其他组成部分的模型-3社区多尺度空气
 与环境暴露相关的PM2.5和臭氧负担
风险分析
GRUMP 2011 Grump Center for International Earth Science Information Network (CIESIN) Global Rural-Urban Mapping Project(GRUMP) (哥伦比亚大学) (访问时间：2012年11月7日)
http://sedac.ciesin.columbia.edu/data/collection/grump-v1 )

Hammitt J K 和 Robinson L A 2011 价值每统计生命单位的收入弹性：在高低收入人群中转移估计值 J. Bene 
成本分析
21-19

He Q, Wollersheim C, Locke M 和 Waitz I A 2014 使用基于收入的方法估计航空相关噪音的全球影响Transp. Policy 3485-101

Hsu H H, Adamkiewicz G, Houseman E A, Vallarino J, Melly S J 和 Wayson R L 2012 机场附近中大型机场颗粒物浓度的航空活动影响 Atmos. Environ. 50328-37

Hsu H H, Adamkiewicz G, Andres Houseman E, Zarubiak D, Spengler J D 和 Levy J I 2013 洛杉矶国际机场附近超细颗粒物的计数对航班到达和离开的影响贡献 Scientific Total Environ. 444347-55

Hu S, Fruin S, Kozawa K, Mara S, Winer A M 和 Paulson S E 2009 南加州通用航空机场周边的环境影响科学和技术研究 Environ. Sci. Technol. 438039-45

ICAO 2013 全球航空运输展望到2030年和2040年 (国际民航组织) (网址：http://store1.icao.int/index.php/global-air-transport-outlook-to-2030-and-trends-to-2040-cir-333-english-printed.html )

Isakov V, Irwin J S 和 Ching J 2007 使用CMAQ进行暴露建模并描述暴露估计值的子网格变化 J. Appl. Meteorol. Climatol. 461354-71

Jerrett M, Burnett R T, Pope C A, Ito K, Thurston G, Krewski D, Shi Y, Calle E 和 Thun M 2009 长期暴露于细颗粒物中的美国人口社会成本 New England J. Med. 3601085-95

Johnson L J 和 Hope C 2012 美国监管影响分析中碳的社会成本 J. Environ. Stud. Sci. 2205-21

Kim B 等 2012 机场排放对当地空气质量的贡献度量化 (ACRP报告71)
技术报告
Transportation Research Board Airport Cooperative Research Program (网址：http://onlinepubs.trb.org/onlinepubs/acrp/acrp_rpt_071.pdf )

Kinsey J S 2009 商业飞机发动机排放特征 during the aircraft particle emissions experiment (APEX) 1-3 (EPA-600/R-09/130) 技术报告
US Environmental Protection Agency Of 
fice of Research and Development National Risk Management Research Laboratory (网址：http://nepis.epa.gov/Adobe/PDF/P1005KRK.pdf )

Koo J, Wang Q, Henze D K, Waitz I A 和 Barrett S R H 2013 人类健康风险对跨大陆和高海拔污染的大气影响 Atmos. Environ. 71140-7

Köhler M O, Rädel G, Shine K P, Rogers H L 和 Pyle J A 2013 航空NOx排放对大气氧气和甲烷以及相关气候指标的影响 Latitude 1-9

Laden F, Schwartz J, Speizer F E 和 Dockery D W 2006 空气污染燃烧排放与细颗粒物浓度减少及死亡率的延长 follow-up of the Harvard Six Cities Study Am. J. Respir. Crit. Care Med. 173667-672

Lee G 2012 快速评估机场附近空气质量影响的技术方法的发展 SM论文 The Massachu-
setts Institute of Technology

Lee H, Olsen S C, Wuebbles D J 和 Youn D 2013 飞机排放对地面空气质量的影响 Atmos. Chem. Phys. 135505-22

Levy J I, Woody M, Baek B H, Shankar U 和 Arunachalam S 2012a 来自着陆和起飞过程的航空排
 美国环保局2010年经济分析指南（美国环保局）(http://yosemite.epa.gov/ee/epa/eed.nsf/pages/guidelines.html)
美国环保局2011年《清洁空气法》收益与成本：1990-2020年，最终报告-修订版（三角公园，NC：美国环保局空气与辐射办公室）第5-10页((www.epa.gov/air/sect812/feb11/fullreport_rev_a.pdf))
11环境研究杂志10(2015) 034001 S H L Yim等
 西塔哈尔 D, 弗瑞恩 S A, 菲尼 P L 和西奥多 C 2008 《洛杉矶》国际机场作为附近社区超细颗粒物和其他污染源的研究对象，环境科学和环境工程423143-55。

2004年世界卫生组织全球疾病负担（GBD）（世界卫生组织）(访问时间为2013年1月19日，网址为www.who.int/healthinfo/global_burden_disease/en)。

威尔克森 J T，雅各布森 M Z，马尔维茨 A，巴拉斯姆曼ian S，魏斯 R，弗林 G，纳伊曼 A D 和莱利 S K 2010。《全球商业航空排放数据分析》：2004年和2006年，大气化学物理106391-6408。

沃尔夫 P，李 S H L，朴 Y，阿肖克 A，巴特 S 和瓦兹 I A 2014。

机场附近飞行对航空运输环境成本的影响，交通政策34102-8。

伍德 M 和阿伦纳什拉姆 S 2013 年《亚特兰大机场》来自飞机排放的二次有机气溶胶先进诊断调查，环境科学和环境工程79101-9。

伍德 M，巴克 B H，阿德尔曼 Z，奥玛丽 M，拉姆 Y F，韦斯特 J J 和阿伦纳什拉姆 S 2011。《美国当前和未来细颗粒物在航空中的贡献评估》，环境科学和环境工程453424-3433。

2012年，英